Cc1ccccc1
     RDKit          3D

 15 15  0  0  0  0  0  0  0  0999 V2000
    0.7203    0.0150   -0.0488 C   0  0  0  0  0  0  0  0  0  0  0  0
    0.0120   -1.1532   -0.3566 C   0  0  0  0  0  0  0  0  0  0  0  0
   -1.3827   -1.1703   -0.2996 C   0  0  0  0  0  0  0  0  0  0  0  0
   -2.0802   -0.0235    0.0753 C   0  0  0  0  0  0  0  0  0  0  0  0
   -1.3835    1.1396    0.3977 C   0  0  0  0  0  0  0  0  0  0  0  0
    0.0112    1.1579    0.3411 C   0  0  0  0  0  0  0  0  0  0  0  0
    2.2198    0.0241   -0.0771 C   0  0  0  0  0  0  0  0  0  0  0  0
    0.5433   -2.0577   -0.6436 H   0  0  0  0  0  0  0  0  0  0  0  0
   -1.9245   -2.0797   -0.5452 H   0  0  0  0  0  0  0  0  0  0  0  0
   -3.1658   -0.0375    0.1204 H   0  0  0  0  0  0  0  0  0  0  0  0
   -1.9260    2.0327    0.6962 H   0  0  0  0  0  0  0  0  0  0  0  0
    0.5417    2.0705    0.6025 H   0  0  0  0  0  0  0  0  0  0  0  0
    2.6142   -0.2707    0.9002 H   0  0  0  0  0  0  0  0  0  0  0  0
    2.5998    1.0204   -0.3265 H   0  0  0  0  0  0  0  0  0  0  0  0
    2.6004   -0.6675   -0.8360 H   0  0  0  0  0  0  0  0  0  0  0  0
  1  2  2  0
  2  3  1  0
  3  4  2  0
  4  5  1  0
  5  6  2  0
  6  1  1  0
  1  7  1  0
  2  8  1  0
  3  9  1  0
  4 10  1  0
  5 11  1  0
  6 12  1  0
  7 13  1  0
  7 14  1  0
  7 15  1  0
M  END
$$$$
